44
Coordinates from ORCA-job opt
  C   -8.56700004076399     -8.52699995238408    -21.44300002405766
  C   -7.28199995582915     -9.20100005861748    -20.95499996248785
  C   -6.45887440759620     -9.74416558698062    -22.08344936567090
  C   -6.71652661845470    -10.86320031415551    -22.86716874086075
  N   -5.25035471567025     -9.20658168806396    -22.52081310815736
  C   -4.80127225484169     -9.96049327301581    -23.53707361192929
  N   -5.68258050351529    -10.96115374109398    -23.77221648303039
  H   -6.66094852292797     -8.51524215758482    -20.35667552061997
  H   -7.54888411465508    -10.03770579489306    -20.27993361387957
  H   -7.53579136570726    -11.58711633162830    -22.84304898164189
  H   -3.86671889121960     -9.81492799694108    -24.08249446986133
  H   -5.57103284023953    -11.68566182417789    -24.49046873082965
  C   -8.25499999050569     -3.32200002742998    -24.85300000549943
  C   -6.99600001028126     -4.16299996974080    -25.06800001458246
  C   -6.56029323993404     -4.96019672702548    -23.86979551192709
  C   -5.75172287359875     -6.08944324258389    -23.78800674517617
  N   -6.87056771331328     -4.65358320782118    -22.55427514755790
  C   -6.26755819263313     -5.54314320385416    -21.72045241374429
  N   -5.57603369240504     -6.42653032630146    -22.45159919521978
  H   -7.15223495434973     -4.86095393590193    -25.90918105399533
  H   -6.15852823709375     -3.50223031161185    -25.37960031075660
  H   -7.48401325904755     -3.89541131119263    -22.24857113296720
  H   -5.28502223745433     -6.66026491093644    -24.60477140489974
  H   -6.35796564476187     -5.52818895639625    -20.63113654618031
  Co  -4.20732801971751     -7.66744401268657    -21.97574041374910
  O   -4.64304986056318     -7.58366669558596    -20.15669884306154
  O   -2.70794724288234     -8.80693950212435    -21.82599652594113
  O   -0.64047455834475     -3.28337114094255    -20.97526863542655
  N   -2.96688891173938     -6.18889855316688    -21.67587726239613
  O   -0.04220340161280     -4.80012564223565    -19.32922949224255
  O   -0.48776871471021     -8.88106048393721    -21.36871723041484
  O   -4.09571600532270     -6.64770823672923    -18.17213022930202
  C   -1.55990295403638     -8.29350442444368    -21.43370040911282
  C   -3.90136996899027     -6.80163147793712    -19.37173322769340
  C   -0.67427277940286     -4.32725477449430    -20.32730836470263
  C   -2.81279886416895     -6.19757383091674    -20.18392640157864
  C   -1.58557322126465     -5.49807783140709    -20.53219553383157
  C   -1.78207025979454     -6.85305033225960    -21.06905329848569
  H   -8.52453358940838     -2.78392409054559    -25.78108410769749
  H   -8.10124349637569     -2.56169079243219    -24.06438067262392
  H   -9.11690264266999     -3.94665897575823    -24.56596220156337
  H   -9.22166976883040     -9.24881228467365    -21.96914771562319
  H   -8.35996996333482     -7.70810655956146    -22.13777496706441
  H   -9.13816250446515     -8.10917955084208    -20.58884691021967
