50

Co        -7.83737        0.08429      -12.02593
C         -3.04237        0.14129       -8.17893
C         -2.81537        0.25229       -9.68793
C         -4.04083       -0.21487      -10.44782
C         -5.23661        0.37476      -10.51179
N         -4.05405       -1.38369      -11.23267
C         -5.35414       -1.53649      -11.82776
N         -6.08648       -0.38151      -11.35827
H         -1.95708       -0.40523       -9.94421
H         -2.56159        1.29324       -9.98087
H         -3.26039       -2.02698      -11.36445
H         -5.51196        1.30030      -10.02452
H         -5.25445       -1.49947      -12.93283
C         -8.22537       -2.54071       -5.99493
C         -7.87037       -3.12771       -7.36193
C         -8.58286       -2.12111       -8.76032
C         -9.93910       -2.26465       -8.47507
N         -8.31684       -1.04394      -10.16967
C         -9.92561       -1.00147      -10.16926
N        -10.70998       -1.59680       -9.29309
H         -8.23092       -4.17712       -7.42598
H         -6.76536       -3.12898       -7.47154
H        -10.37472       -2.84040       -7.67028
H        -10.35351       -0.41277      -10.87147
H        -11.75227       -1.54138       -9.25501
O         -7.96234        1.60585      -11.06804
O         -6.97990        1.00550      -13.34598
O         -7.88452       -1.42052      -13.03852
N         -9.54388        0.55277      -12.91184
O         -9.36143       -2.84020      -13.94072
O         -7.28112        2.24995      -15.16790
O         -9.45801        3.14836      -10.45395
C         -7.73760        1.53517      -14.29103
C         -9.18400        2.19181      -11.15980
C         -9.13059       -1.73805      -13.47134
C        -10.21201        1.62863      -12.12767
H        -11.12579        1.29612      -11.59740
H        -10.58912        2.45738      -12.77061
C        -10.22511       -0.70129      -13.32986
H        -11.00860       -1.07377      -12.64788
H        -10.77080       -0.58177      -14.29662
C         -9.13811        1.16915      -14.19858
H         -7.85441       -1.49626       -5.93291
H         -7.73291       -3.14045       -5.20084
H         -9.31374       -2.54721       -5.79337
H         -3.26957       -0.90988       -7.89935
H         -3.88657        0.79242       -7.86701
H         -2.12701        0.46476       -7.64018
H         -9.72213        2.05436      -14.34080
H         -9.30185        0.42523      -14.95002
