50
Coordinates from ORCA-job opt
  Co  -7.83737002123293      0.08428998048285    -12.02592997171589
  C   -3.04236999967646      0.14129004645779     -8.17893005514690
  C   -2.81536998341180      0.25228995040999     -9.68792994710065
  C   -4.08400190754609     -0.21527036711039    -10.35651930069534
  C   -5.15629440513478      0.48202866326904    -10.89309436990862
  N   -4.52381921700704     -1.53289075311074    -10.28124169485221
  C   -5.80003852668202     -1.61035202727854    -10.75000720405867
  N   -6.20959303906364     -0.39604455610800    -11.13689502744466
  H   -1.94868057560197     -0.36265048944611    -10.00843670946260
  H   -2.61877158254158      1.29875309420818     -9.99177461597379
  H   -3.99158850231623     -2.31795018535573     -9.89378298081119
  H   -5.23679181548901      1.55122116283982    -11.11032651831870
  H   -6.37682714538907     -2.53850193410489    -10.81451978357024
  C   -8.22537006193460     -2.54071002026040     -5.99492990898521
  C   -7.87036994076749     -3.12770995474864     -7.36193012342938
  C   -8.73381361572863     -2.61811870277820     -8.47642843694459
  C   -9.48089376065299     -3.35348019157545     -9.38977407808176
  N   -8.90762814446789     -1.26087450602699     -8.71639496165192
  C   -9.73447932067922     -1.18020425213720     -9.75825043442023
  N   -10.11959086058915     -2.42196186919958    -10.18592958576117
  H   -7.93617211659478     -4.23499778144237     -7.34001683169913
  H   -6.80681706210329     -2.88781957389764     -7.59402287649330
  H   -9.61387859652408     -4.43051558698599     -9.53534362037493
  H   -10.13448257162501     -0.25656266159437    -10.18945981933997
  H   -10.73171630580070     -2.63445310860779    -10.97930858475572
  O   -8.06108139884951      1.71448427450317    -11.01271931450580
  O   -6.74944938743635      1.20459076054238    -13.46857411675803
  O   -8.08632473257732     -1.65246069709354    -12.82833184884009
  N   -9.42189659988570      0.60901448467013    -13.06695581102622
  O   -9.74467482862240     -2.96152333325500    -13.61333833483110
  O   -7.19521429433735      2.46728347116140    -15.28940112371056
  O   -9.43407046517786      3.48945000366657    -10.82163556307086
  C   -7.52316864350637      1.66188414296954    -14.38872270090594
  C   -9.13175350053139      2.39116178775388    -11.32206928682803
  C   -9.30816301352885     -1.85610737831258    -13.24987673365894
  C   -10.08447701154248      1.70994251499649    -12.31407190599145
  H   -10.91656229980995      1.28795066684117    -11.71473938636121
  H   -10.52811509283132      2.45977215122970    -12.99972910581797
  C   -10.23127341696108     -0.62805728028815    -13.21793034572372
  H   -10.91326142125296     -0.72366124527160    -12.35107654317874
  H   -10.87222537621692     -0.59895069942838    -14.12392806573099
  C   -8.93742844418370      1.06506694558227    -14.40545810178287
  H   -8.15366665574027     -1.43445209831408     -6.00900296284335
  H   -7.54122874504568     -2.91527773111078     -5.20640857682503
  H   -9.26258909531335     -2.80375887789351     -5.69942215521083
  H   -3.22795099009415     -0.90882104567478     -7.87534859706239
  H   -3.91961984107111      0.74382284909464     -7.86855567410722
  H   -2.16182588902999      0.49999060125171     -7.60575500200230
  H   -9.66507786220287      1.76890374959266    -14.85867787607218
  H   -8.87770946596595      0.17842994722083    -15.06967086231595
