50
Coordinates from ORCA-job opt
  Co  -7.49174472795596     -0.89978405167255    -12.40110627221134
  C   -3.04237000288597      0.14129000858014     -8.17892993029210
  C   -2.81536997748336      0.25229001455925     -9.68793007080214
  C   -3.86861845818413     -0.40356092511364    -10.52535454181157
  C   -5.05929980357716      0.07665125011031    -11.05380077287158
  N   -3.83034514054460     -1.74232985676655    -10.88747015161453
  C   -4.94485354931572     -2.04891955486006    -11.60141280652611
  N   -5.70388610809809     -0.95538098250645    -11.70998374515892
  H   -1.82704039873586     -0.18179593104140     -9.95167827882142
  H   -2.76976645923832      1.32263735284464     -9.97685563580422
  H   -3.07408300158322     -2.39651607674127    -10.66185885176323
  H   -5.49529600209999      1.07873803565779    -11.00586239901305
  H   -5.19581072489517     -3.03511036172894    -12.00197350502211
  C   -8.22536996611204     -2.54071001363288     -5.99493005486881
  C   -7.87037005536148     -3.12771000937253     -7.36192994285176
  C   -8.01601838742713     -2.18339920746454     -8.51922719257168
  C   -7.85045667860545     -2.38963451306584     -9.88047334357827
  N   -8.31208133841350     -0.83572808047358     -8.39666039669119
  C   -8.31080685899189     -0.25866612154840     -9.62653983885348
  N   -8.03612513747677     -1.18966927834188    -10.54926600818664
  H   -8.49459738312045     -4.02471729118573     -7.56212004441448
  H   -6.82205275034272     -3.49854241846131     -7.34560083652913
  H   -7.58474477660577     -3.30844685435406    -10.40911153662536
  H   -8.48503899351400      0.80471364033933     -9.80873851644298
  O   -7.66952612730269      0.99774984556636    -12.17571552132395
  O   -6.81072026160601     -0.59190712077151    -14.14640328908289
  O   -7.55907094417679     -2.79416807109528    -12.72958935886394
  N   -9.29421906563337     -0.86860040198756    -13.16504878605110
  O   -9.06296425967733     -4.45068627666232    -12.96953781578166
  O   -7.44592582726662     -0.24472148138169    -16.27295274970577
  O   -9.22082805934806      2.62373314861354    -12.24512900500953
  C   -7.70171577347324     -0.49380158957735    -15.09287171356781
  C   -8.89376773041984      1.44088004782438    -12.34174113965164
  C   -8.78279676364607     -3.25869539976836    -12.84874169362989
  C   -9.94038705904713      0.33682434305311    -12.58926799793735
  H   -10.37338745035300      0.06821959596494    -11.60557014153240
  H   -10.76313299073109      0.70429419499475    -13.23444963383439
  C   -9.87653791460285     -2.17523218397856    -12.76952633747523
  H   -10.21073403410976     -2.10996073297523    -11.71534910136337
  H   -10.75104222764057     -2.44232985384244    -13.39676779019387
  C   -9.14275834976787     -0.76867136023080    -14.65056240449316
  H   -7.57443275052632     -1.67985470799938     -5.73394290909015
  H   -8.09487224081777     -3.30458530656046     -5.20335411493286
  H   -9.27972680858678     -2.19548455517374     -5.95586265882051
  H   -3.07101854159919     -0.91860646909712     -7.85076587671244
  H   -4.00223882431461      0.61167872361150     -7.88144856450253
  H   -2.22690078898240      0.64652317272860     -7.62198461617331
  H   -9.81563519025103      0.01455716566262    -15.05089041268725
  H   -9.45056232963574     -1.72745871506485    -15.11317303820799
  H   -8.49730085886348     -0.34023851234172     -7.51891775293123
