50
Coordinates from ORCA-job opt
  C   -8.56700012241285     -8.52699989027682    -21.44300006640183
  C   -7.28199987569727     -9.20100011325214    -20.95499992498501
  C   -6.36437110327569     -9.59976133230425    -22.07558803456285
  C   -6.54914531061754    -10.63747444071504    -22.98142661622908
  N   -5.18711020509600     -8.93923590844610    -22.43246068680741
  C   -4.68350673479114     -9.55628814452639    -23.51079719943888
  N   -5.48879644372879    -10.58508920311689    -23.86191568600179
  H   -6.72270239786875     -8.53535449577440    -20.27199848138055
  H   -7.54700795613184    -10.11179650808202    -20.37636199551688
  H   -7.33924714035229    -11.39069060954367    -23.06011684274310
  H   -3.76335329567833     -9.26386551307462    -24.02290441724213
  H   -5.32584387293395    -11.22223765408555    -24.64764100895171
  C   -8.25499992514969     -3.32200009081333    -24.85300000131204
  C   -6.99600007412027     -4.16299990853827    -25.06800001392852
  C   -6.52940983702751     -4.92502155256530    -23.85759494700045
  C   -5.46960413992925     -5.80571789430785    -23.68659432342629
  N   -7.11937066189120     -4.83437690370982    -22.60722834431758
  C   -6.44133163175946     -5.61686895381103    -21.72719931628657
  N   -5.42134326826445     -6.21011627215450    -22.36031119107263
  H   -7.16023511400632     -4.88658050192238    -25.89521418309487
  H   -6.16394516900484     -3.50955079715797    -25.40960330781865
  H   -7.93912737863000     -4.26715913846000    -22.37010037800244
  H   -4.74997401899144     -6.16582405837206    -24.42576670770511
  H   -6.71802374173543     -5.74663399556218    -20.67791810712419
  Co  -4.15511008210745     -7.48986527730246    -21.61758053255662
  O   -5.03995640908940     -7.42582251957818    -19.90692019886691
  O   -3.00297323277092     -8.82497609253372    -20.91428425670487
  O   -3.04535084243612     -7.32380540219185    -23.18727631620868
  N   -2.93423227277461     -6.13921629838124    -20.85838335844323
  O   -1.64982367082536     -5.87943630967655    -24.19883057337354
  O   -1.14867662505574     -9.12296712916659    -19.68295160270823
  O   -5.16469980648892     -6.20331466566256    -18.02426460954003
  C   -1.96038955395325     -8.39660010522817    -20.26020262697456
  C   -4.69624683220110     -6.41529956965157    -19.14223176349178
  C   -2.35160924451770     -6.20847018255504    -23.24372549906923
  C   -3.69872591089551     -5.44445581624437    -19.79580244673952
  C   -2.53198141078255     -5.30107066328631    -22.01468505204416
  C   -1.75810756106257     -6.87954569209820    -20.29835052056936
  H   -8.52803771182281     -2.79449690786346    -25.78812940236631
  H   -8.10721446080824     -2.54992270337088    -24.06881527659506
  H   -9.12348254245001     -3.94723875615196    -24.55745277646294
  H   -9.17206905754043     -9.20845412029784    -22.07690976725143
  H   -8.34871703433627     -7.62109656472177    -22.04561435121817
  H   -9.20038553587429     -8.21413890567290    -20.58669420265022
  H   -0.87028226726986     -6.68526310372465    -20.93242631480934
  H   -1.52045682391549     -6.50279108510122    -19.28468222808301
  H   -4.28607901647409     -4.62481394537187    -20.25405723467910
  H   -3.02520759547241     -4.99556665970124    -19.03933101338466
  H   -3.34436365285788     -4.58213335765965    -22.23881270084510
  H   -1.60906958266260     -4.72544282452261    -21.79940546241466
