50
Coordinates from ORCA-job opt
  Co  -6.84987777465635      1.18209296202345    -10.17823377282078
  C   -1.68593000526364      1.75916998405505     -8.21961997777463
  C   -1.45892998616241      1.87017002073570     -9.72862002087098
  C   -2.78620254776930      1.40035175554210    -10.31809977991161
  C   -3.99985069385426      1.24212303468052     -9.65124870300022
  N   -3.06049897082146      0.99574385819163    -11.61918039572755
  C   -4.37088721795513      0.63325631558225    -11.71799037640030
  N   -4.96255469558640      0.77880179053588    -10.52642683527333
  H   -0.62685806623203      1.22249803066414    -10.07410194016132
  H   -1.22971888920018      2.91137325036769    -10.03927714299982
  H   -2.38310598690904      0.95341399157001    -12.38717965855610
  H   -4.27199100359555      1.46384687717629     -8.61764268434132
  H   -4.86477595916500      0.32588488249534    -12.64415221208778
  C   -6.86892998137912     -0.92282998562778     -6.03562002156162
  C   -6.51393002818283     -1.50983002442345     -7.40261997566695
  C   -7.45969944643874     -1.53923310783121     -8.58202553840944
  C   -8.28364819682577     -2.62631480089875     -8.84427260362062
  N   -7.45284791652437     -0.72412572624650     -9.74026067077617
  C   -8.20697382422241     -1.35971773995202    -10.65316594771901
  N   -8.73406506281396     -2.49008628505150    -10.13571794724450
  H   -6.22717496823851     -2.57102063523115     -7.24643934220220
  H   -5.58754694035794     -1.00995740615537     -7.75950958545667
  H   -8.51931430075188     -3.50128874524263     -8.23004446037782
  H   -8.37541273298933     -1.04011680609894    -11.68224618273644
  H   -9.34112566923775     -3.14323468093813    -10.64098890386553
  O   -6.63581430650570      1.55399503215877     -8.29789730594952
  O   -6.26066656946301      2.93404682593586    -10.63200073917551
  O   -7.34525206744118      0.96925338328547    -12.02212677758609
  N   -8.64094385512281      1.99312093634218     -9.93003987438585
  O   -9.09889873169469      1.19468286460462    -13.41132093663617
  O   -6.90850176025624      5.06052348167734    -10.92331139449934
  O   -7.84589348031139      2.13381940968022     -6.49046029194580
  C   -7.13875479591701      3.89635728708190    -10.59282069082346
  C   -7.76371456089453      1.80389168271202     -7.67622472838482
  C   -8.60764062516140      1.22567250300494    -12.28352587232390
  C   -9.01821759890689      1.61673922557688     -8.54882904726928
  H   -9.30998095004876      0.54870398029792     -8.52758069999652
  H   -9.86589433396731      2.22567331118164     -8.17546234229011
  C   -9.47881849443187      1.47472681380103    -11.03522985585972
  H   -10.31541032906116      2.16337030078594    -11.26404555970485
  H   -9.91524435520065      0.50401114041896    -10.72986849221648
  C   -8.49274417998000      3.48045967388307    -10.02996254101418
  H   -8.57606732511995      3.92666808901470     -9.01891593256064
  H   -9.31357192843971      3.90537464421127    -10.63883509623114
  H   -6.99140591903769      0.17512897860036     -6.04701129987149
  H   -6.05571857825196     -1.16752543495868     -5.32172795979424
  H   -7.80389041447468     -1.36644130691879     -5.63009844066033
  H   -1.95127288809932      0.72533134504220     -7.92569461294497
  H   -2.49012283031381      2.43904932260248     -7.87895493904870
  H   -0.77190997577885      2.04138892110222     -7.65533900491153
