50
Coordinates from ORCA-job opt
  C   -8.23610834523082     -8.00804537737914    -21.02197230725188
  C   -7.28199997546663     -9.20100001216981    -20.95500001940883
  C   -6.16667003824505     -9.14434997643054    -22.13685998981864
  C   -6.21401311352950     -9.90841362923894    -23.29612150337687
  N   -5.06419532920818     -8.29784493545794    -22.20475359590495
  C   -4.46038530456267     -8.54877921508896    -23.37925039330867
  N   -5.13212068086511     -9.51745537265045    -24.05661185499772
  H   -6.74839277493114     -9.19227789143681    -19.98488503618306
  H   -7.81491082904979    -10.16546596232620    -21.07677743775513
  H   -6.91526090267827    -10.68056360306108    -23.62833825554591
  H   -3.54267441635585     -8.05211787051369    -23.70746105961119
  H   -4.86735589323655     -9.89377981616263    -24.97130835683731
  C   -8.30985580776519     -4.93812906265568    -25.29605878392350
  C   -6.99599997811051     -4.16300004878697    -25.06799994981276
  C   -6.38835001556956     -4.41434997016844    -23.78873003555672
  C   -5.26488185641292     -5.13054849144368    -23.37748905810053
  N   -7.04570464550700     -4.11230255288503    -22.59825345372212
  C   -6.33633941533433     -4.63488168478593    -21.55556201594726
  N   -5.24972527786867     -5.26633236477012    -21.99938381425993
  H   -6.27021827129296     -4.43090130589882    -25.86434039419451
  H   -7.19785604830657     -3.07556910434575    -25.20768295690290
  H   -7.93123197929001     -3.60134121118364    -22.52830787528928
  H   -4.47933030302926     -5.57568953402563    -23.99864519238216
  H   -6.65175470450881     -4.54901614354968    -20.50962726897564
  Co  -4.19606466976327     -7.05821481197775    -20.95880137036787
  O   -5.59125618471936     -7.02465538970798    -19.59426337948211
  O   -3.28802937341753     -8.68285121745780    -19.82871694772723
  O   -2.68262563183632     -6.77622853125752    -22.19079986407101
  N   -3.15450528750889     -5.88472355012006    -19.74752908381615
  O   -1.03160519484622     -5.28677414979360    -22.59409325826442
  O   -2.00754509902035     -8.88689506037727    -17.96766608677347
  O   -6.17665489887644     -5.91285180673735    -17.71928594157125
  C   -2.54606014276189     -8.23846826827775    -18.89114640436208
  C   -5.40741018775172     -6.13345077732828    -18.66804692963688
  C   -1.97683945677927     -5.71549366372588    -21.91769066316690
  C   -4.15418221949672     -5.25080356518669    -18.85476600477523
  C   -2.44559745498534     -4.95537726527376    -20.65882538674672
  C   -2.18625282119644     -6.72942244534043    -18.99026039347152
  H   -8.71182864037546     -4.73968420595330    -26.31071967312666
  H   -9.08789595473588     -4.63894894423964    -24.56336780053984
  H   -8.15157800334717     -6.03198238337753    -25.19462809591941
  H   -8.75901963360435     -7.94722432863391    -21.99955052579495
  H   -7.66546394290978     -7.07191157408500    -20.86180569121156
  H   -9.00715438463405     -8.07160025505934    -20.22439493347166
  H   -1.20971577221746     -6.69382216303897    -19.51611886777922
  H   -2.02091218525783     -6.30133494282089    -17.97914667659307
  H   -4.48810826274976     -4.30716096192468    -19.32921678611040
  H   -3.71745681333073     -4.98631470024734    -17.86819231931916
  H   -3.16768501394135     -4.18655658657993    -20.99799264488790
  H   -1.59593598110760     -4.44505996393643    -20.15640096196468
