50
Coordinates from ORCA-job opt
  Co  -6.42800000352827      1.69000000485446    -12.01600001201094
  C   -1.63300001924287      1.74699999139015     -8.16899998958199
  C   -1.34351832724141      1.64171257867357     -9.67180558028249
  C   -2.53904264909217      1.57330475350561    -10.58456400817192
  C   -3.89293927727934      1.85527520826673    -10.44672132041745
  N   -2.39550497689561      1.17609503197988    -11.90950834222076
  C   -3.59819398465591      1.21181297209146    -12.53238333444416
  N   -4.52887181723039      1.62006821355532    -11.66394363058625
  H   -0.72055772046136      0.74179900239610     -9.86840673805460
  H   -0.71414222438181      2.50511533603053     -9.98607938295243
  H   -1.51362232332431      0.88753626264465    -12.34577068817149
  H   -4.45376724722617      2.20145335311488     -9.57425607121638
  H   -3.78046472297529      0.92018377327462    -13.57060256702928
  C   -6.81599998022058     -0.93499999469464     -5.98500000120158
  C   -6.92926523593616     -0.14060451213158     -7.31249426588471
  C   -6.43376295132098     -0.87497842955211     -8.53738312046691
  C   -5.87864925567682     -2.15106194701046     -8.56345160103683
  N   -6.46737578743321     -0.37581624176581     -9.84931423939479
  C   -5.94674795920735     -1.33174917201572    -10.62229831725968
  N   -5.58052946349877     -2.41441965816040     -9.88578032888324
  H   -6.37381400641207      0.81951169353446     -7.21934753680759
  H   -7.98841945556896      0.15872817919594     -7.47698179000276
  H   -5.68087000030720     -2.87838761774207     -7.77014308538984
  H   -5.80932309840611     -1.25967844974726    -11.70808372498336
  H   -5.15832368420686     -3.27438416402711    -10.24851396963444
  O   -6.73271160038899      2.91076954920252    -10.58409035417487
  O   -6.32515019805616      2.96492932986033    -13.35213384910300
  O   -6.33457259901435      0.27778166694870    -13.28803425700148
  N   -8.36849343463103      1.67498219787132    -12.23372328313378
  O   -7.65338437645790     -1.10051293146725    -14.47946970603923
  O   -7.55364281556420      4.18954230922122    -14.75211945452490
  O   -8.28564967576886      3.30421056977651     -9.00428669673297
  C   -7.48065850372632      3.38580531867431    -13.82757321592766
  C   -7.93168887564230      2.77611310785376    -10.05564782093551
  C   -7.50699934666290     -0.20317491919486    -13.65545552526459
  C   -8.86911804460058      1.83767169500471    -10.83808475955775
  H   -8.82588503454669      0.84897147422930    -10.34065185778408
  H   -9.91498282786085      2.20563951115583    -10.82423349127323
  C   -8.70567698688407      0.37696476534421    -12.88468147906609
  H   -9.58589961010225      0.48075552911175    -13.54838352114363
  H   -8.95889536301443     -0.35899051887660    -12.09596812129821
  C   -8.70590871562511      2.85370113618943    -13.08994031198000
  H   -9.07367898508887      3.67659957687483    -12.44470502436011
  H   -9.51473520405131      2.60213502521551    -13.80259006213828
  H   -7.40440562505905     -1.87487936058277     -6.02305535111968
  H   -7.19962546149988     -0.32679201890405     -5.14212770548573
  H   -5.76250468610596     -1.20088911347037     -5.76019983872301
  H   -2.22485918998425      0.88131461482612     -7.80571282284351
  H   -2.19932239522056      2.66951639977860     -7.92470246418445
  H   -0.68272251043841      1.77540115075054     -7.60045702147550
