50
Coordinates from ORCA-job opt
  Co  -7.83737001656560      0.08429000404182    -12.02593000146864
  C   -3.04237006089012      0.14128997132778     -8.17892990345993
  C   -2.81536997181614      0.25228999741476     -9.68793008962938
  C   -4.00095029251193     -0.10028120165780    -10.53910780549279
  C   -5.15859254696881      0.59753090841657    -10.86314066403215
  N   -4.14458686824260     -1.33267935247803    -11.16095968224755
  C   -5.33119789590734     -1.37292292199090    -11.82048736121981
  N   -5.96496417762935     -0.20961526840101    -11.64763905376664
  H   -1.96439980166296     -0.39451559008280     -9.98926494043221
  H   -2.51077546399358      1.29146433880025     -9.93399733103167
  H   -3.45603732008919     -2.09140597481633    -11.13490865594213
  H   -5.47254847634407      1.60566969848354    -10.57722635566217
  H   -5.72623169492867     -2.23092675407197    -12.37148670411240
  C   -8.22537003763372     -2.54071001489864     -5.99492999801816
  C   -7.87036991482594     -3.12770995554414     -7.36193000851014
  C   -7.91041097747197     -2.02384469589320     -8.40406124888613
  C   -8.10325956798141     -1.97088221324645     -9.78197210957276
  N   -7.77203495117210     -0.69322956618318     -8.02694063191916
  C   -7.87591813824049      0.10750494666990     -9.11144293638806
  N   -8.08393069255153     -0.64204337958307    -10.20020262516905
  H   -8.57873584424325     -3.92716990541097     -7.65822734877281
  H   -6.85963622734582     -3.58985491974255     -7.33571490782892
  H   -8.24268012237017     -2.79645482893440    -10.48546444953811
  H   -7.76938350541911      1.19496047034522     -9.09381967680574
  O   -7.84133347163093      1.87648620512563    -11.33310548886416
  O   -7.42345155110313      0.79039125715945    -13.73320036700183
  O   -8.08593736349110     -1.66936258359914    -12.76420816885845
  N   -9.72903390466977      0.36012827922275    -12.42442615403140
  O   -9.72046327917898     -3.16340063044406    -13.16197609620686
  O   -8.36318901163983      1.74702999500498    -15.53512818623641
  O   -9.27068460596860      3.48005359671428    -10.66603061687577
  C   -8.44488390534869      1.18909693234433    -14.43910758970483
  C   -9.04426868721006      2.36261978215759    -11.12930103504954
  C   -9.34270542244370     -2.04908729147848    -12.80066394144922
  C   -10.18503195505316      1.37741216813023    -11.44514175075238
  H   -10.44426028333103      0.86251524532035    -10.49884137625054
  H   -11.08666966700739      1.91157866331722    -11.80543096847972
  C   -10.33755342841663     -0.98776671683984    -12.29043437103566
  H   -10.52511439844349     -1.18784841032024    -11.21703455932350
  H   -11.30343731193715     -1.05348091553440    -12.83046418573756
  C   -9.81342444565345      0.86082740172748    -13.83275939209878
  H   -7.46225985161444     -1.81590883271395     -5.64429042908065
  H   -8.27121310318087     -3.33847111383119     -5.22587239125910
  H   -9.21155082071623     -2.03374956767878     -6.00895139226334
  H   -3.31003714075002     -0.89414787933902     -7.88241099140061
  H   -3.86347014959800      0.80889292064128     -7.84509322720187
  H   -2.12480705694799      0.42714533360592     -7.62520398940629
  H   -10.47302915766851      1.74897335317028    -13.88361925377969
  H   -10.27233528861995      0.07811060459095    -14.46879861215407
  H   -7.62477427617975     -0.35679145118211     -7.07098402114238
