50

C         -1.63300        1.74700       -8.16900
C         -1.40600        1.85800       -9.67800
C         -2.52900        1.28700      -10.58300
C         -2.30300        0.10200      -11.25500
N         -3.83900        1.68700      -10.85200
C         -4.31500        0.69000      -11.61700
N         -3.43600       -0.24600      -11.86300
H         -0.47300        1.28500       -9.87400
H         -1.18700        2.90500       -9.96200
H         -1.39900       -0.49500      -11.25300
H         -5.31300        0.57300      -11.98900
H         -3.72800       -1.05200      -12.40500
C         -6.81600       -0.93500       -5.98500
C         -6.46100       -1.52200       -7.35200
C         -6.57300       -0.37800       -8.32700
C         -5.73000        0.72300       -8.47100
N         -7.55500       -0.28300       -9.23300
C         -7.30300        0.83600       -9.92700
N         -6.18200        1.47000       -9.50600
H         -7.21500       -2.30200       -7.59200
H         -5.44600       -1.97200       -7.37900
H         -8.34200       -0.95200       -9.38800
H         -4.82000        0.91700       -7.92000
H         -7.91200        1.14600      -10.76300
H         -2.53200        2.31500       -7.86300
H         -0.75300        2.15000       -7.62500
H         -1.77600        0.68200       -7.88700
H         -6.08800       -0.14700       -5.69400
H         -6.78100       -1.74000       -5.22100
H         -7.84100       -0.50400       -5.99400
Zn        -5.37100        2.94300      -10.50000
O         -2.63200        4.88500       -8.77500
O         -4.42100        3.56600       -9.09900
O         -6.72200        4.02300      -10.02700
O         -7.54000        6.07500      -10.25400
O         -6.36600        2.48400      -11.96200
O         -6.27500        2.60700      -14.18800
N         -4.66800        4.39300      -11.57400
H         -2.59400        3.93400      -11.43800
H         -2.96800        5.66200      -11.30200
H         -6.00100        5.92200      -12.39600
H         -5.02000        6.47100      -11.00800
H         -3.79800        3.29200      -13.24000
H         -4.74000        4.73700      -13.71300
C         -3.33600        4.64800      -11.02900
C         -3.45100        4.41300       -9.54500
C         -5.55400        5.59200      -11.43000
C         -6.67400        5.25900      -10.52600
C         -4.68800        3.90200      -12.97700
C         -5.86700        2.99300      -13.10400
