50
Coordinates from ORCA-job opt
  C   -1.63299999467675      1.74700001583161     -8.16900003509446
  C   -1.40600001140169      1.85799998134875     -9.67799996291630
  C   -2.70650994397596      1.45221747152089    -10.32994530305144
  C   -3.85195037946726      0.94387196809158     -9.72754863062481
  N   -3.06756440915319      1.62357666338466    -11.66026788603217
  C   -4.37232103019050      1.25401221466138    -11.81341615006801
  N   -4.88135256985426      0.83616690465360    -10.64852670368788
  H   -0.56841455206287      1.20868385732582    -10.01210177460983
  H   -1.14704924347289      2.89679044177981     -9.97293338161283
  H   -2.46516936409706      1.98775597741473    -12.40497702790651
  H   -4.01095706894131      0.68206458977417     -8.67907695540025
  H   -4.89198191590386      1.29494004103020    -12.77674043435017
  C   -6.81600001286747     -0.93500002050653     -5.98499999106852
  C   -6.46099998049362     -1.52199997759545     -7.35200001081472
  C   -7.55942271434804     -1.59368119152350     -8.37447291374630
  C   -8.58775408007526     -2.52259033975526     -8.45313029420079
  N   -7.65870757926323     -0.74384185155439     -9.47870214904925
  C   -8.71393964076817     -1.15342997270582    -10.19402648284456
  N   -9.29632970264819     -2.22367874569383     -9.60173728921466
  H   -6.06831573907997     -2.55083805309758     -7.20628964523013
  H   -5.62677142997336     -0.94021013910491     -7.79704577482164
  H   -8.85426076401106     -3.36444770359034     -7.80701662756974
  H   -9.07433572728289     -0.70545890336942    -11.12578861753566
  H   -10.11335786086236     -2.72812064494241     -9.95924786250601
  Zn  -6.98003571154054      1.20993857021141     -9.89998194343550
  O   -7.57590604610824      2.87127323210556    -13.64188291792650
  O   -7.55691745419547      1.42366074799705    -11.91408738492013
  O   -6.20859723653904      1.80920141368245     -8.02363662856460
  O   -4.83347152683022      3.33090429673838     -7.08659449181352
  O   -8.99594030015550      1.81321861256273     -9.39063397624503
  O   -10.37945500595562      3.59567558398254     -9.43269403818075
  N   -6.79012439179885      3.44313756459880    -10.13041039060122
  H   -7.04523011763890      4.65505722367293    -11.88668953758930
  H   -5.58454040015853      3.63536708697088    -11.84592583714709
  H   -5.56328185728251      4.84560613204056     -9.03830008743161
  H   -4.69594759593098      3.54175950830674     -9.89266868333513
  H   -8.32886068390676      4.93033971042927    -10.14227867763625
  H   -7.84016870632224      4.34741574877419     -8.53433271064646
  C   -6.65992115340813      3.65935897204251    -11.57417304456166
  C   -7.33808484164107      2.57808138558153    -12.44764498530603
  C   -5.61550423361784      3.76912612120841     -9.31550517363784
  C   -5.54855924799391      2.91766760940551     -8.02922288828631
  C   -8.02905808169025      4.02024518792381     -9.57887876644619
  C   -9.24099749901921      3.07157499814298     -9.48621139165066
  H   -1.86193490573831      0.70464672978324     -7.87105342341227
  H   -2.47159920997316      2.39063556477118     -7.83928322722613
  H   -0.72828124380262      2.05484402564774     -7.60588498109542
  H   -7.13886993693044      0.12222318117381     -6.07004200758939
  H   -5.93600481720866     -0.96498402271941     -5.31108690107312
  H   -7.63497208320002     -1.50505840740105     -5.49934806038714
