50
Coordinates from ORCA-job opt
  Co  -1.94816000258425      2.32031999163609    -12.07960998445599
  C   2.84684001919598      2.37732001084247     -8.23260999539245
  C   3.07383999719768      2.48831998658961     -9.74161001981625
  C   2.45067405527457      1.39871216601874    -10.57121344206877
  C   2.99596195693026      0.17908281348413    -10.96577673052585
  N   1.16386916929577      1.50741397134318    -11.07931163541906
  C   0.93487408891831      0.39225606756905    -11.77308973537962
  N   2.01815146195260     -0.43788572334690    -11.72398934333109
  H   4.16612159496447      2.51170675624172     -9.94335445962999
  H   2.66871648527006      3.45777265555938    -10.10369950196609
  H   3.97121392602006     -0.28593966200760    -10.78460384742451
  H   0.01767300223268      0.17497089936253    -12.33965846845672
  H   2.10044006967817     -1.35021822985133    -12.18242355753990
  C   -2.33616007387004     -0.30468001456473     -6.04860992989070
  C   -1.98115994471465     -0.89167998071319     -7.41561006923189
  C   -2.28457590158776     -0.21042663308099     -8.73377876532622
  C   -2.05386717530903      1.03295542370165     -9.32737103813056
  N   -2.68421113480218     -1.01876633882056     -9.79032116528858
  C   -2.67027634889454     -0.31026178490781    -10.94710064977958
  N   -2.28733388669402      0.95185124505954    -10.70449500035364
  H   -2.44756025003206     -1.89840822900806     -7.48434299954232
  H   -0.88544040037470     -1.09790723328186     -7.41724217889079
  H   -2.92355517702112     -2.01184031240666     -9.70785370978094
  H   -1.71981013056267      1.97114338076369     -8.87327492872120
  H   -2.92239467830146     -0.73271045675518    -11.92300533758748
  O   -2.31974384865406      3.69144093837924    -10.76213164156651
  O   -1.31886495962305      3.62017768236767    -13.34743598695590
  O   -1.86716651286184      0.95854833870347    -13.44912124233746
  N   -3.86769140771633      2.76772413734827    -12.80750531188874
  O   -3.19436231836308     -0.11906624236567    -14.91834501581395
  O   -1.97365214547929      5.09622748173077    -14.92104151503905
  O   -4.08522221125512      4.63820196274752     -9.72669180728208
  C   -2.21039420259804      4.24553782261271    -14.04940145353635
  C   -3.59611945135814      3.90257889049224    -10.59473570469428
  C   -3.01195382702033      0.72530975601566    -14.03121803202190
  C   -4.54140956051270      3.11953138958154    -11.55106852431401
  H   -4.82243279428733      2.18153060384323    -11.02988158611349
  H   -5.47205707842896      3.71274435359738    -11.70565794272230
  C   -4.23370551477036      1.51844065162781    -13.48353214857355
  H   -4.95503357717130      1.67975568639935    -14.31605057082549
  H   -4.72964510649544      0.84951105010473    -12.74987237226303
  C   -3.68447608365322      3.90943948355636    -13.72223272717962
  H   -4.12674836996867      4.82159939731007    -13.26908421036089
  H   -4.22690200478916      3.74082914341430    -14.67749157173058
  H   -1.84172700188888      0.67337132786302     -5.87111922904081
  H   -2.00013826199479     -0.99974561938235     -5.25416255077691
  H   -3.42973046914436     -0.15282208824525     -5.93211824391018
  H   1.76376609163650      2.37403753892384     -7.98692522354249
  H   3.31189634679020      3.22919048870493     -7.69420681769761
  H   3.28294887119021      1.44072232675118     -7.82578244759193
