50
Coordinates from ORCA-job opt
  Co  -1.94816001604713      2.32032000178147    -12.07961000008924
  C   2.84684002527647      2.37732002597391     -8.23261009310651
  C   3.07384000376169      2.48831997233130     -9.74160991724692
  C   2.40394230816777      1.41610335274022    -10.56985352046819
  C   2.95881753959389      0.19809105057631    -10.95473779723752
  N   1.10055902201082      1.49352129225186    -11.06605680870171
  C   0.88940742111995      0.35780420341994    -11.73494453975383
  N   1.98540731862791     -0.45033551778611    -11.68695449859649
  H   4.16321786046752      2.45963595359505     -9.95335887179912
  H   2.71186192943920      3.47732141692975    -10.09739148176100
  H   3.94451970892299     -0.24455881513348    -10.77509957225875
  H   -0.02600635578154      0.09145942626945    -12.27901034666939
  H   2.07559346622600     -1.36991399433417    -12.12951705222745
  C   -2.33616005892891     -0.30468003224793     -6.04860997713357
  C   -1.98115995883740     -0.89167997404851     -7.41561001121102
  C   -2.29304114178089     -0.20495484714287     -8.72967331839065
  C   -2.04713999522466      1.03397767313661     -9.32105364021879
  N   -2.74716204422744     -0.99687263474209     -9.77897027086114
  C   -2.75211427212507     -0.29356913244662    -10.92983035299096
  N   -2.32944750788428      0.95729997095518    -10.68953087439128
  H   -2.44437951415001     -1.89900714530609     -7.48833053451614
  H   -0.88477359670834     -1.09022353297282     -7.42637195773765
  H   -3.01363829261637     -1.98410054091938     -9.69354302533773
  H   -1.66099357918744      1.95480123364179     -8.87436545733386
  H   -3.05411452892711     -0.70789520458136    -11.89480231841245
  O   -2.06571044899304      3.67312505330782    -10.73343698014787
  O   -1.26663575116859      3.52905046412417    -13.33266242227993
  O   -1.98734841465717      0.98479966680244    -13.44155653565479
  N   -3.70797586842750      2.84296067844850    -12.57820027746217
  O   -3.44580481837489      0.02933950185068    -14.86266351774632
  O   -1.87871033442191      5.07068051885339    -14.84471375042063
  O   -3.64684331767336      4.64416322273553     -9.45939578359522
  C   -2.15148345864920      4.25740709604723    -13.96600676153886
  C   -3.31260977860864      3.92687944199493    -10.39750267671183
  C   -3.18193375918572      0.82514760291330    -13.96600748844328
  C   -4.35075340916683      3.20139024648911    -11.27888579802914
  H   -4.66017398140148      2.27083646383153    -10.76599664753921
  H   -5.24833851297076      3.82731962041910    -11.45494008120653
  C   -4.28646492162897      1.66716473819537    -13.29350303985778
  H   -5.04174396753999      1.99973959203124    -14.03120987158549
  H   -4.79175971759131      1.01925419882676    -12.55105154389964
  C   -3.58437010719504      4.05039899797331    -13.47252621606107
  H   -3.87445333273736      4.95172946819344    -12.89778509202382
  H   -4.28692502846322      3.95456973744693    -14.32150809806591
  H   -1.84468640301407      0.67499934194381     -5.87340324829109
  H   -1.99521512708401     -0.99903079022826     -5.25587854023901
  H   -3.43003182853790     -0.15850349098974     -5.93072180188115
  H   1.76598090705092      2.42293500580258     -7.98211344017445
  H   3.35309557314965      3.20341559871845     -7.69131359591661
  H   3.24133122925853      1.41907511507843     -7.83419959808820
